9
  0 1
  C     1.291290    0.133682    0.000000
  C     0.000000    0.479159    0.000000
  H     1.601160   -0.907420    0.000000
  H     2.080800    0.877337    0.000000
  H    -0.263221    1.536098    0.000000
  C    -1.139757   -0.492341    0.000000
  H    -0.776859   -1.523291    0.000000
  H    -1.775540   -0.352861    0.880420
  H    -1.775540   -0.352861   -0.880420
