10
  0 1
  C     0.000000    0.000000    0.315026
  C     0.000000   -0.767920   -0.932032
  C     0.000000    0.767920   -0.932032
  C     0.000000    0.000000    1.640027
  H    -0.912794   -1.271789   -1.239303
  H     0.912794   -1.271789   -1.239303
  H     0.912794    1.271789   -1.239303
  H    -0.912794    1.271789   -1.239303
  H     0.000000   -0.926908    2.205640
  H     0.000000    0.926908    2.205640
