8
  0 1
  C    -0.038450   -0.397326    0.739421
  N    -0.038450    0.875189    0.000000
  C    -0.038450   -0.397326   -0.739421
  H     0.903052    1.268239    0.000000
  H    -0.955661   -0.604926    1.280047
  H    -0.955661   -0.604926   -1.280047
  H     0.869409   -0.708399    1.249033
  H     0.869409   -0.708399   -1.249033
