11
  0 1
  C     0.892629   -0.642344    0.000000
  C     2.365587   -0.245168    0.000000
  C     0.000000    0.582921    0.000000
  H     0.663731   -1.252117    0.879201
  H     0.663731   -1.252117   -0.879201
  H     3.005476   -1.130924    0.000000
  Cl   -1.732810    0.139743    0.000000
  H     2.614882    0.347704   -0.884730
  H     2.614882    0.347704    0.884730
  H     0.172881    1.195836    0.886460
  H     0.172881    1.195836   -0.886460
