13
  0 1
  N     0.000000    0.000000    0.395846
  C     0.000000    1.378021   -0.065175
  C     1.193401   -0.689011   -0.065175
  C    -1.193401   -0.689011   -0.065175
  H     0.000000    1.461142   -1.167899
  H     0.886156    1.891052    0.317655
  H    -0.886156    1.891052    0.317655
  H     1.265386   -0.730571   -1.167899
  H     1.194621   -1.712960    0.317655
  H     2.080777   -0.178092    0.317655
  H    -1.265386   -0.730571   -1.167899
  H    -2.080777   -0.178092    0.317655
  H    -1.194621   -1.712960    0.317655
