9
  0 1
  S     0.000000    0.000000    1.189753
  C     0.000000    1.233876   -0.001474
  C     0.000000   -1.233876   -0.001474
  C     0.000000    0.709173   -1.272322
  C     0.000000   -0.709173   -1.272322
  H     0.000000    2.275343    0.291984
  H     0.000000   -2.275343    0.291984
  H     0.000000    1.321934   -2.167231
  H     0.000000   -1.321934   -2.167231
