8
  0 1
  Si    0.000000    0.000000    1.167683
  Si    0.000000    0.000000   -1.167683
  H     0.000000    1.393286    1.686020
  H    -1.206621   -0.696643    1.686020
  H     1.206621   -0.696643    1.686020
  H     0.000000   -1.393286   -1.686020
  H    -1.206621    0.696643   -1.686020
  H     1.206621    0.696643   -1.686020
