10
  0 1
  C     0.000000    0.000000    2.071955
  C     0.000000    0.000000    0.609970
  C     0.000000    0.000000   -0.609970
  C     0.000000    0.000000   -2.071955
  H     0.000000    1.020696    2.464562
  H    -0.883949   -0.510348    2.464562
  H     0.883949   -0.510348    2.464562
  H     0.000000    1.020696   -2.464562
  H     0.883949   -0.510348   -2.464562
  H    -0.883949   -0.510348   -2.464562
