10
  0 1
  C     0.000000    1.131343    0.310424
  C     0.000000   -1.131343    0.310424
  C     0.747952    0.000000   -0.311812
  C    -0.747952    0.000000   -0.311812
  H     0.000000    1.237033    1.397617
  H     0.000000    2.077375   -0.227668
  H     0.000000   -1.237033    1.397617
  H     0.000000   -2.077375   -0.227668
  H     1.414410    0.000000   -1.161626
  H    -1.414410    0.000000   -1.161626
