12
  0 1
  C     0.000000    0.000000    1.458807
  C     0.000000    0.000000    0.119588
  H     0.000000    0.924302    2.028409
  H     0.000000   -0.924302    2.028409
  C     0.000000    1.272683   -0.678803
  H     0.000000    2.153042   -0.031588
  H     0.880211    1.323542   -1.329592
  H    -0.880211    1.323542   -1.329592
  C     0.000000   -1.272683   -0.678803
  H     0.000000   -2.153042   -0.031588
  H    -0.880211   -1.323542   -1.329592
  H     0.880211   -1.323542   -1.329592
