10
  0 1
  C    -0.027530   -0.224702    1.204880
  N    -0.027530    0.592470    0.000000
  C    -0.027530   -0.224702   -1.204880
  H     0.791501   -0.962742    1.248506
  H     0.039598    0.421182    2.083405
  H    -0.972220   -0.772987    1.261750
  H     0.805303    1.178220    0.000000
  H     0.791501   -0.962742   -1.248506
  H     0.039598    0.421182   -2.083405
  H    -0.972220   -0.772987   -1.261750
