12
  0 1
  O     0.006429   -0.712741    0.000000
  C     0.000000    0.705845    0.000000
  C     1.324518   -1.226029    0.000000
  C    -1.442169    1.160325    0.000000
  H     0.530962    1.086484    0.886881
  H     0.530962    1.086484   -0.886881
  H     1.241648   -2.313325    0.000000
  H     1.881329   -0.905925   -0.891710
  H     1.881329   -0.905925    0.891710
  H    -1.954863    0.780605   -0.885855
  H    -1.954863    0.780605    0.885855
  H    -1.502025    2.252083    0.000000
