13
  0 2
  C     0.000000    0.000000    0.191929
  C     0.000000    1.478187   -0.020866
  C     1.280147   -0.739093   -0.020866
  C    -1.280147   -0.739093   -0.020866
  H     0.000000    1.731496   -1.093792
  H    -0.887043    1.945769    0.417565
  H     0.887043    1.945769    0.417565
  H     1.499520   -0.865748   -1.093792
  H     2.128607   -0.204683    0.417565
  H     1.241564   -1.741086    0.417565
  H    -1.499520   -0.865748   -1.093792
  H    -1.241564   -1.741086    0.417565
  H    -2.128607   -0.204683    0.417565
