12
  0 1
  C    -1.047825   -1.421674    0.000000
  C    -1.454503   -0.855446    1.206205
  C    -1.454503   -0.855446   -1.206205
  C    -2.266797    0.277161    1.206954
  C    -2.671478    0.845021    0.000000
  C    -2.266797    0.277161   -1.206954
  H    -1.133853   -1.292059   -2.142315
  H    -2.582494    0.716307   -2.143798
  H    -3.303042    1.723270    0.000000
  H    -2.582494    0.716307    2.143798
  H    -1.133853   -1.292059    2.142315
  H    -0.406025   -2.291905    0.000000
