12
  0 1
  N     2.011359   -1.213207   -0.098067
  C     2.025708   -0.697180   -1.364403
  H     2.297521   -1.391059   -2.145646
  C     1.714523    0.591965   -1.612489
  H     1.727287    0.990847   -2.612005
  C     1.308960    1.457534   -0.520589
  O     0.920593    2.611086   -0.626046
  N     1.376888    0.839745    0.734636
  H     1.051804    1.386223    1.523371
  C     1.645991   -0.485211    1.018727
  O     1.561109   -0.971806    2.129806
  H     2.129463   -2.201505    0.056813
