12
  0 1
  C    -0.021074    1.531861   -1.363935
  C    -1.274679    0.974103   -1.607410
  C    -1.378305   -0.225698   -2.308415
  C    -0.228943   -0.866405   -2.768794
  C     1.024788   -0.303517   -2.531241
  C     1.129000    0.896679   -1.829983
  H     0.060074    2.456563   -0.809396
  H    -2.165100    1.465452   -1.240568
  H    -2.350973   -0.661612   -2.492670
  H    -0.310342   -1.795576   -3.317270
  H     1.916585   -0.794084   -2.899394
  H     2.100035    1.332676   -1.640042
