12
  0 1
  C    -0.739281    0.515879   -1.207108
  C    -1.426144    0.396545    0.000000
  C    -0.739281    0.515879    1.207108
  C     0.634227    0.754640    1.207073
  C     1.321043    0.873757    0.000000
  C     0.634227    0.754640   -1.207073
  H    -1.271950    0.420632   -2.143289
  H    -2.490220    0.205238    0.000000
  H    -1.271950    0.420632    2.143289
  H     1.166800    0.847488    2.143695
  H     2.386359    1.059631    0.000000
  H     1.166800    0.847488   -2.143695
