12
  0 1
  C    -0.709774   -0.990423    1.207702
  C    -1.406534   -0.965353    0.000000
  C    -0.709774   -0.990423   -1.207702
  C     0.683965   -1.040510   -1.207865
  C     1.380978   -1.065552    0.000000
  C     0.683965   -1.040510    1.207865
  H    -1.249948   -0.968628    2.144051
  H    -2.486920   -0.923706    0.000000
  H    -1.249948   -0.968628   -2.144051
  H     1.224288   -1.058075   -2.144256
  H     2.461589   -1.102982    0.000000
  H     1.224288   -1.058075    2.144256
