12
  0 1
  C     0.000000    0.000000    1.059035
  C     0.000000   -1.206008    1.757674
  C     0.000000   -1.207177    3.151591
  C     0.000000    0.000000    3.848575
  C     0.000000    1.207177    3.151591
  C     0.000000    1.206008    1.757674
  H     0.000000    0.000000   -0.021580
  H     0.000000   -2.141639    1.214422
  H     0.000000   -2.143566    3.692995
  H     0.000000    0.000000    4.930150
  H     0.000000    2.143566    3.692995
  H     0.000000    2.141639    1.214422
