12
  0 1
  O    -1.466332    1.012169    0.000000
  C    -0.628146    1.914268    0.000000
  N     0.720509    1.688269    0.000000
  C     1.636729    2.705276    0.000000
  C     1.276904    4.006176    0.000000
  C    -0.128601    4.362155    0.000000
  N    -0.977723    3.239643    0.000000
  O    -0.597223    5.486407    0.000000
  H     2.010350    4.793864    0.000000
  H     1.023251    0.706182    0.000000
  H    -1.970027    3.432385    0.000000
  H     2.669062    2.388342    0.000000
