12
  0 1
  C     2.511900    1.625015    0.000000
  C     2.713009    0.957854   -1.208292
  C     3.117782   -0.376744   -1.208365
  C     3.321385   -1.043731    0.000000
  C     3.117782   -0.376744    1.208365
  C     2.713009    0.957854    1.208292
  H     2.202404    2.661136    0.000000
  H     2.551176    1.473691   -2.144590
  H     3.270300   -0.895141   -2.144838
  H     3.636814   -2.078152    0.000000
  H     3.270300   -0.895141    2.144838
  H     2.551176    1.473691    2.144590
