13
  0 1
  C    -2.007106    0.763846   -0.108351
  O    -1.388504    1.929852   -0.443121
  H    -0.523812    1.964652   -0.006461
  C    -1.463081   -0.151912    0.794993
  C    -2.147579   -1.329509    1.088368
  C    -3.374321   -1.603143    0.489586
  C    -3.914373   -0.683855   -0.409103
  C    -3.237050    0.492961   -0.709613
  H    -0.510651    0.056657    1.264256
  H    -1.715113   -2.032145    1.787842
  H    -3.902466   -2.517387    0.719795
  H    -4.867073   -0.882294   -0.881132
  H    -3.643166    1.213434   -1.405759
